@<TRIPOS>MOLECULE
BTN.pdb
 31 32 0 0 0
SMALL
GASTEIGER

@<TRIPOS>ATOM
      1  C11       32.7620   18.2190   14.0340 C.2   5001  BTN5001     0.3560
      2  O11       33.6690   17.5090   13.5040 O.co2 5001  BTN5001    -0.2464
      3  O12       32.6820   19.4650   13.8290 O.co2 5001  BTN5001    -0.2464
      4  C10       31.7530   17.5720   14.9490 C.3   5001  BTN5001     0.0492
      5  C9        31.3230   16.1740   14.5610 C.3   5001  BTN5001    -0.0428
      6  C8        30.5930   16.1270   13.2310 C.3   5001  BTN5001    -0.0515
      7  C7        30.1480   14.7140   12.8350 C.3   5001  BTN5001    -0.0394
      8  C2        29.3360   14.6570   11.5470 C.3   5001  BTN5001     0.0255
      9  S1        27.6530   15.2910   11.7220 S.3   5001  BTN5001    -0.1536
     10  C6        27.2850   14.6750   10.0540 C.3   5001  BTN5001     0.0143
     11  C5        27.9460   13.2940    9.9790 C.3   5001  BTN5001     0.0529
     12  N1        27.0810   12.2510   10.5300 N.am  5001  BTN5001    -0.2940
     13  C3        27.6090   11.7300   11.6130 C.2   5001  BTN5001     0.3002
     14  O3        27.0480   10.7730   12.2940 O.2   5001  BTN5001    -0.2528
     15  N2        28.7920   12.2330   11.9080 N.am  5001  BTN5001    -0.2937
     16  C4        29.1570   13.2680   10.9360 C.3   5001  BTN5001     0.0555
     17 H102       32.1240   17.5420   15.8450 H     5001  BTN5001     0.0379
     18 H101       30.9650   18.1370   14.9870 H     5001  BTN5001     0.0379
     19  HN2       29.2790   11.9890   12.5740 H     5001  BTN5001     0.1506
     20  HN1       26.3280   12.0110   10.1900 H     5001  BTN5001     0.1506
     21  H92       32.1050   15.6010   14.5160 H     5001  BTN5001     0.0270
     22  H91       30.7470   15.8140   15.2540 H     5001  BTN5001     0.0270
     23  H82       29.8150   16.7040   13.2750 H     5001  BTN5001     0.0266
     24  H81       31.1710   16.4830   12.5390 H     5001  BTN5001     0.0266
     25  H72       30.9330   14.1540   12.7360 H     5001  BTN5001     0.0276
     26  H71       29.6200   14.3370   13.5560 H     5001  BTN5001     0.0276
     27  H62       26.3280   14.6140    9.9060 H     5001  BTN5001     0.0395
     28  H61       27.6390   15.2700    9.3750 H     5001  BTN5001     0.0395
     29  H5        28.1590   13.1410    9.0450 H     5001  BTN5001     0.0525
     30  H4        30.0110   13.0630   10.5230 H     5001  BTN5001     0.0528
     31  H2        29.8850   15.2110   10.9700 H     5001  BTN5001     0.0431
@<TRIPOS>BOND
     1    29    11    1
     2    28    10    1
     3    27    10    1
     4    11    10    1
     5    11    12    1
     6    11    16    1
     7    10     9    1
     8    20    12    1
     9    30    16    1
    10    12    13   am
    11    16     8    1
    12    16    15    1
    13    31     8    1
    14     8     9    1
    15     8     7    1
    16    13    15   am
    17    13    14    2
    18    15    19    1
    19    24     6    1
    20    25     7    1
    21     7     6    1
    22     7    26    1
    23     6    23    1
    24     6     5    1
    25     2     1   ar
    26     3     1   ar
    27     1     4    1
    28    21     5    1
    29     5     4    1
    30     5    22    1
    31     4    18    1
    32     4    17    1
